REMARK  7 active torsions:
REMARK  status: ('A' for Active; 'I' for Inactive)
REMARK    1  A    between atoms: O1_1  and  C21_22 
REMARK    2  A    between atoms: C5_6  and  C12_13 
REMARK    3  A    between atoms: C12_13  and  C19_20 
REMARK    4  A    between atoms: C19_20  and  C23_24 
REMARK    5  A    between atoms: C23_24  and  C24_25 
REMARK    6  A    between atoms: C24_25  and  C25_26 
REMARK    7  A    between atoms: C24_25  and  C26_27 
ROOT
ATOM      1  C1  UNK     1     -37.414  -7.908  28.342  1.00  0.00    -0.036 C 
ATOM      2  C2  UNK     1     -36.555  -8.717  27.350  1.00  0.00    -0.001 C 
ATOM      3  C3  UNK     1     -37.215  -8.889  25.978  1.00  0.00    -0.001 C 
ATOM      4  C4  UNK     1     -37.516  -7.489  25.367  1.00  0.00     0.003 C 
ATOM      5  C5  UNK     1     -36.496  -7.989  29.587  1.00  0.00    -0.002 C 
ATOM      6  C6  UNK     1     -37.586  -6.498  27.761  1.00  0.00     0.010 C 
ATOM      7  C7  UNK     1     -38.235  -7.613  23.964  1.00  0.00    -0.017 C 
ATOM      8  C8  UNK     1     -36.164  -9.963  28.139  1.00  0.00     0.006 C 
ATOM      9  C9  UNK     1     -38.234  -6.540  26.366  1.00  0.00     0.007 C 
ATOM     10  C10 UNK     1     -36.004  -9.456  29.584  1.00  0.00     0.006 C 
ATOM     11  C11 UNK     1     -36.308  -9.693  25.035  1.00  0.00     0.033 C 
ATOM     12  C13 UNK     1     -38.801  -8.533  28.630  1.00  0.00     0.016 C 
ATOM     13  C14 UNK     1     -37.562  -8.688  23.098  1.00  0.00    -0.072 C 
ATOM     14  C15 UNK     1     -38.132  -6.237  23.240  1.00  0.00     0.016 C 
ATOM     15  C16 UNK     1     -36.699  -9.591  23.595  1.00  0.00    -0.023 C 
ATOM     16  C17 UNK     1     -39.726  -7.995  24.127  1.00  0.00     0.020 C 
ATOM     17  C18 UNK     1     -37.900  -8.699  21.626  1.00  0.00     0.066 C 
ATOM     18  C20 UNK     1     -38.539  -6.269  21.767  1.00  0.00     0.033 C 
ATOM     19  C21 UNK     1     -37.745  -7.317  20.997  1.00  0.00     0.122 C 
ENDROOT
BRANCH   5  20
ATOM     20  C12 UNK     1     -37.112  -7.573  30.915  1.00  0.00    -0.014 C 
ATOM     21  C22 UNK     1     -37.633  -6.135  30.826  1.00  0.00     0.010 C 
BRANCH  20  22
ATOM     22  C19 UNK     1     -36.083  -7.748  32.052  1.00  0.00     0.005 C 
BRANCH  22  23
ATOM     23  C23 UNK     1     -36.526  -7.278  33.448  1.00  0.00     0.005 C 
BRANCH  23  24
ATOM     24  C24 UNK     1     -37.721  -8.038  34.081  1.00  0.00    -0.012 C 
BRANCH  24  25
ATOM     25  C25 UNK     1     -38.168  -7.415  35.442  1.00  0.00    -0.019 C 
ATOM     26  C27 UNK     1     -38.549  -5.935  35.307  1.00  0.00     0.010 C 
ATOM     27  C28 UNK     1     -37.143  -7.580  36.567  1.00  0.00     0.010 C 
ENDBRANCH  24  25
BRANCH  24  28
ATOM     28  C26 UNK     1     -37.412  -9.552  34.178  1.00  0.00     0.000 C 
ATOM     29  C29 UNK     1     -38.558 -10.396  34.721  1.00  0.00     0.005 C 
ENDBRANCH  24  28
ENDBRANCH  23  24
ENDBRANCH  22  23
ENDBRANCH  20  22
ENDBRANCH   5  20
BRANCH  19  30
ATOM     30  O1  UNK     1     -38.221  -7.347  19.655  1.00  0.00    -0.395 OA
ATOM     31  H38 UNK     1     -37.704  -8.016  19.175  1.00  0.00     0.210 HD
ENDBRANCH  19  30
TORSDOF 7
