MODEL 1
REMARK VINA RESULT:     -10.4      0.000      0.000
REMARK  7 active torsions:
REMARK  status: ('A' for Active; 'I' for Inactive)
REMARK    1  A    between atoms: O1_1  and  C21_22 
REMARK    2  A    between atoms: C5_6  and  C12_13 
REMARK    3  A    between atoms: C12_13  and  C19_20 
REMARK    4  A    between atoms: C19_20  and  C23_24 
REMARK    5  A    between atoms: C23_24  and  C24_25 
REMARK    6  A    between atoms: C24_25  and  C25_26 
REMARK    7  A    between atoms: C24_25  and  C26_27 
ROOT
ATOM      1  C1  UNK     1      -4.275 -34.364  20.272  1.00  0.00    -0.036 C 
ATOM      2  C2  UNK     1      -4.094 -35.207  18.994  1.00  0.00    -0.001 C 
ATOM      3  C3  UNK     1      -4.664 -34.536  17.740  1.00  0.00    -0.001 C 
ATOM      4  C4  UNK     1      -3.984 -33.151  17.537  1.00  0.00     0.003 C 
ATOM      5  C5  UNK     1      -3.662 -35.344  21.303  1.00  0.00    -0.002 C 
ATOM      6  C6  UNK     1      -3.490 -33.059  20.080  1.00  0.00     0.010 C 
ATOM      7  C7  UNK     1      -4.568 -32.399  16.274  1.00  0.00    -0.017 C 
ATOM      8  C8  UNK     1      -4.613 -36.586  19.391  1.00  0.00     0.006 C 
ATOM      9  C9  UNK     1      -3.967 -32.294  18.833  1.00  0.00     0.007 C 
ATOM     10  C10 UNK     1      -4.217 -36.723  20.872  1.00  0.00     0.006 C 
ATOM     11  C11 UNK     1      -4.445 -35.419  16.503  1.00  0.00     0.033 C 
ATOM     12  C13 UNK     1      -5.751 -34.046  20.613  1.00  0.00     0.016 C 
ATOM     13  C14 UNK     1      -4.704 -33.358  15.082  1.00  0.00    -0.072 C 
ATOM     14  C15 UNK     1      -3.588 -31.249  15.894  1.00  0.00     0.016 C 
ATOM     15  C16 UNK     1      -4.631 -34.694  15.208  1.00  0.00    -0.023 C 
ATOM     16  C17 UNK     1      -5.966 -31.803  16.570  1.00  0.00     0.020 C 
ATOM     17  C18 UNK     1      -4.921 -32.740  13.721  1.00  0.00     0.066 C 
ATOM     18  C20 UNK     1      -3.871 -30.603  14.538  1.00  0.00     0.033 C 
ATOM     19  C21 UNK     1      -3.900 -31.644  13.426  1.00  0.00     0.122 C 
ENDROOT
BRANCH   5  20
ATOM     20  C12 UNK     1      -3.918 -35.034  22.771  1.00  0.00    -0.014 C 
ATOM     21  C22 UNK     1      -2.672 -34.403  23.401  1.00  0.00     0.010 C 
BRANCH  20  22
ATOM     22  C19 UNK     1      -4.356 -36.316  23.512  1.00  0.00     0.005 C 
BRANCH  22  23
ATOM     23  C23 UNK     1      -3.879 -36.456  24.968  1.00  0.00     0.005 C 
BRANCH  23  24
ATOM     24  C24 UNK     1      -3.761 -37.903  25.515  1.00  0.00    -0.012 C 
BRANCH  24  25
ATOM     25  C25 UNK     1      -4.735 -38.169  26.707  1.00  0.00    -0.019 C 
ATOM     26  C27 UNK     1      -6.194 -38.290  26.249  1.00  0.00     0.010 C 
ATOM     27  C28 UNK     1      -4.635 -37.137  27.833  1.00  0.00     0.010 C 
ENDBRANCH  24  25
BRANCH  24  28
ATOM     28  C26 UNK     1      -2.287 -38.239  25.848  1.00  0.00     0.000 C 
ATOM     29  C29 UNK     1      -2.093 -39.551  26.596  1.00  0.00     0.005 C 
ENDBRANCH  24  28
ENDBRANCH  23  24
ENDBRANCH  22  23
ENDBRANCH  20  22
ENDBRANCH   5  20
BRANCH  19  30
ATOM     30  O1  UNK     1      -4.239 -30.992  12.206  1.00  0.00    -0.395 OA
ATOM     31  H38 UNK     1      -3.873 -31.521  11.478  1.00  0.00     0.210 HD
ENDBRANCH  19  30
TORSDOF 7
ENDMDL
MODEL 2
REMARK VINA RESULT:     -10.2      3.260      6.190
REMARK  7 active torsions:
REMARK  status: ('A' for Active; 'I' for Inactive)
REMARK    1  A    between atoms: O1_1  and  C21_22 
REMARK    2  A    between atoms: C5_6  and  C12_13 
REMARK    3  A    between atoms: C12_13  and  C19_20 
REMARK    4  A    between atoms: C19_20  and  C23_24 
REMARK    5  A    between atoms: C23_24  and  C24_25 
REMARK    6  A    between atoms: C24_25  and  C25_26 
REMARK    7  A    between atoms: C24_25  and  C26_27 
ROOT
ATOM      1  C1  UNK     1      -4.138 -33.559  15.979  1.00  0.00    -0.036 C 
ATOM      2  C2  UNK     1      -2.933 -33.169  15.100  1.00  0.00    -0.001 C 
ATOM      3  C3  UNK     1      -2.306 -34.361  14.369  1.00  0.00    -0.001 C 
ATOM      4  C4  UNK     1      -3.384 -35.050  13.481  1.00  0.00     0.003 C 
ATOM      5  C5  UNK     1      -4.459 -32.171  16.587  1.00  0.00    -0.002 C 
ATOM      6  C6  UNK     1      -5.224 -34.121  15.052  1.00  0.00     0.010 C 
ATOM      7  C7  UNK     1      -2.795 -36.313  12.733  1.00  0.00    -0.017 C 
ATOM      8  C8  UNK     1      -2.057 -32.336  16.031  1.00  0.00     0.006 C 
ATOM      9  C9  UNK     1      -4.707 -35.326  14.247  1.00  0.00     0.007 C 
ATOM     10  C10 UNK     1      -3.065 -31.587  16.922  1.00  0.00     0.006 C 
ATOM     11  C11 UNK     1      -1.120 -33.908  13.505  1.00  0.00     0.033 C 
ATOM     12  C13 UNK     1      -3.804 -34.589  17.086  1.00  0.00     0.016 C 
ATOM     13  C14 UNK     1      -1.412 -36.004  12.143  1.00  0.00    -0.072 C 
ATOM     14  C15 UNK     1      -3.769 -36.694  11.578  1.00  0.00     0.016 C 
ATOM     15  C16 UNK     1      -0.695 -34.921  12.491  1.00  0.00    -0.023 C 
ATOM     16  C17 UNK     1      -2.646 -37.517  13.694  1.00  0.00     0.020 C 
ATOM     17  C18 UNK     1      -0.865 -36.973  11.122  1.00  0.00     0.066 C 
ATOM     18  C20 UNK     1      -3.209 -37.723  10.596  1.00  0.00     0.033 C 
ATOM     19  C21 UNK     1      -1.876 -37.265  10.017  1.00  0.00     0.122 C 
ENDROOT
BRANCH   5  20
ATOM     20  C12 UNK     1      -5.410 -32.152  17.775  1.00  0.00    -0.014 C 
ATOM     21  C22 UNK     1      -6.612 -31.252  17.472  1.00  0.00     0.010 C 
BRANCH  20  22
ATOM     22  C19 UNK     1      -4.658 -31.706  19.047  1.00  0.00     0.005 C 
BRANCH  22  23
ATOM     23  C23 UNK     1      -4.944 -32.514  20.324  1.00  0.00     0.005 C 
BRANCH  23  24
ATOM     24  C24 UNK     1      -3.945 -33.655  20.652  1.00  0.00    -0.012 C 
BRANCH  24  25
ATOM     25  C25 UNK     1      -4.657 -35.034  20.832  1.00  0.00    -0.019 C 
ATOM     26  C27 UNK     1      -3.840 -36.192  20.245  1.00  0.00     0.010 C 
ATOM     27  C28 UNK     1      -6.081 -35.076  20.273  1.00  0.00     0.010 C 
ENDBRANCH  24  25
BRANCH  24  28
ATOM     28  C26 UNK     1      -3.055 -33.268  21.858  1.00  0.00     0.000 C 
ATOM     29  C29 UNK     1      -3.172 -34.205  23.054  1.00  0.00     0.005 C 
ENDBRANCH  24  28
ENDBRANCH  23  24
ENDBRANCH  22  23
ENDBRANCH  20  22
ENDBRANCH   5  20
BRANCH  19  30
ATOM     30  O1  UNK     1      -1.375 -38.295   9.171  1.00  0.00    -0.395 OA
ATOM     31  H38 UNK     1      -2.047 -38.997   9.133  1.00  0.00     0.210 HD
ENDBRANCH  19  30
TORSDOF 7
ENDMDL
MODEL 3
REMARK VINA RESULT:     -10.2      1.570      3.123
REMARK  7 active torsions:
REMARK  status: ('A' for Active; 'I' for Inactive)
REMARK    1  A    between atoms: O1_1  and  C21_22 
REMARK    2  A    between atoms: C5_6  and  C12_13 
REMARK    3  A    between atoms: C12_13  and  C19_20 
REMARK    4  A    between atoms: C19_20  and  C23_24 
REMARK    5  A    between atoms: C23_24  and  C24_25 
REMARK    6  A    between atoms: C24_25  and  C25_26 
REMARK    7  A    between atoms: C24_25  and  C26_27 
ROOT
ATOM      1  C1  UNK     1      -4.481 -33.947  19.553  1.00  0.00    -0.036 C 
ATOM      2  C2  UNK     1      -5.277 -32.814  18.876  1.00  0.00    -0.001 C 
ATOM      3  C3  UNK     1      -4.676 -32.365  17.540  1.00  0.00    -0.001 C 
ATOM      4  C4  UNK     1      -4.596 -33.581  16.571  1.00  0.00     0.003 C 
ATOM      5  C5  UNK     1      -5.312 -34.091  20.852  1.00  0.00    -0.002 C 
ATOM      6  C6  UNK     1      -4.529 -35.166  18.621  1.00  0.00     0.010 C 
ATOM      7  C7  UNK     1      -3.944 -33.177  15.188  1.00  0.00    -0.017 C 
ATOM      8  C8  UNK     1      -5.457 -31.782  19.985  1.00  0.00     0.006 C 
ATOM      9  C9  UNK     1      -3.958 -34.834  17.231  1.00  0.00     0.007 C 
ATOM     10  C10 UNK     1      -5.604 -32.628  21.263  1.00  0.00     0.006 C 
ATOM     11  C11 UNK     1      -5.517 -31.244  16.913  1.00  0.00     0.033 C 
ATOM     12  C13 UNK     1      -3.010 -33.582  19.868  1.00  0.00     0.016 C 
ATOM     13  C14 UNK     1      -4.514 -31.843  14.684  1.00  0.00    -0.072 C 
ATOM     14  C15 UNK     1      -4.268 -34.294  14.151  1.00  0.00     0.016 C 
ATOM     15  C16 UNK     1      -5.222 -31.009  15.466  1.00  0.00    -0.023 C 
ATOM     16  C17 UNK     1      -2.409 -33.024  15.313  1.00  0.00     0.020 C 
ATOM     17  C18 UNK     1      -4.258 -31.486  13.239  1.00  0.00     0.066 C 
ATOM     18  C20 UNK     1      -3.940 -33.924  12.705  1.00  0.00     0.033 C 
ATOM     19  C21 UNK     1      -4.629 -32.628  12.297  1.00  0.00     0.122 C 
ENDROOT
BRANCH   5  20
ATOM     20  C12 UNK     1      -4.685 -34.908  21.973  1.00  0.00    -0.014 C 
ATOM     21  C22 UNK     1      -5.670 -35.977  22.459  1.00  0.00     0.010 C 
BRANCH  20  22
ATOM     22  C19 UNK     1      -4.232 -33.975  23.116  1.00  0.00     0.005 C 
BRANCH  22  23
ATOM     23  C23 UNK     1      -2.874 -34.300  23.761  1.00  0.00     0.005 C 
BRANCH  23  24
ATOM     24  C24 UNK     1      -2.913 -35.182  25.036  1.00  0.00    -0.012 C 
BRANCH  24  25
ATOM     25  C25 UNK     1      -1.962 -34.651  26.156  1.00  0.00    -0.019 C 
ATOM     26  C27 UNK     1      -0.615 -35.385  26.171  1.00  0.00     0.010 C 
ATOM     27  C28 UNK     1      -2.576 -34.678  27.557  1.00  0.00     0.010 C 
ENDBRANCH  24  25
BRANCH  24  28
ATOM     28  C26 UNK     1      -2.660 -36.667  24.678  1.00  0.00     0.000 C 
ATOM     29  C29 UNK     1      -3.737 -37.626  25.168  1.00  0.00     0.005 C 
ENDBRANCH  24  28
ENDBRANCH  23  24
ENDBRANCH  22  23
ENDBRANCH  20  22
ENDBRANCH   5  20
BRANCH  19  30
ATOM     30  O1  UNK     1      -4.226 -32.302  10.970  1.00  0.00    -0.395 OA
ATOM     31  H38 UNK     1      -3.272 -32.117  10.990  1.00  0.00     0.210 HD
ENDBRANCH  19  30
TORSDOF 7
ENDMDL
MODEL 4
REMARK VINA RESULT:      -9.5      9.897     13.620
REMARK  7 active torsions:
REMARK  status: ('A' for Active; 'I' for Inactive)
REMARK    1  A    between atoms: O1_1  and  C21_22 
REMARK    2  A    between atoms: C5_6  and  C12_13 
REMARK    3  A    between atoms: C12_13  and  C19_20 
REMARK    4  A    between atoms: C19_20  and  C23_24 
REMARK    5  A    between atoms: C23_24  and  C24_25 
REMARK    6  A    between atoms: C24_25  and  C25_26 
REMARK    7  A    between atoms: C24_25  and  C26_27 
ROOT
ATOM      1  C1  UNK     1      -3.202 -41.857  11.438  1.00  0.00    -0.036 C 
ATOM      2  C2  UNK     1      -2.407 -42.939  12.194  1.00  0.00    -0.001 C 
ATOM      3  C3  UNK     1      -2.919 -44.360  11.933  1.00  0.00    -0.001 C 
ATOM      4  C4  UNK     1      -2.862 -44.659  10.406  1.00  0.00     0.003 C 
ATOM      5  C5  UNK     1      -2.474 -40.598  11.971  1.00  0.00    -0.002 C 
ATOM      6  C6  UNK     1      -3.021 -42.115   9.936  1.00  0.00     0.010 C 
ATOM      7  C7  UNK     1      -3.418 -46.103  10.079  1.00  0.00    -0.017 C 
ATOM      8  C8  UNK     1      -2.367 -42.425  13.630  1.00  0.00     0.006 C 
ATOM      9  C9  UNK     1      -3.493 -43.528   9.548  1.00  0.00     0.007 C 
ATOM     10  C10 UNK     1      -2.284 -40.895  13.478  1.00  0.00     0.006 C 
ATOM     11  C11 UNK     1      -2.083 -45.390  12.705  1.00  0.00     0.033 C 
ATOM     12  C13 UNK     1      -4.709 -41.820  11.789  1.00  0.00     0.016 C 
ATOM     13  C14 UNK     1      -2.872 -47.138  11.075  1.00  0.00    -0.072 C 
ATOM     14  C15 UNK     1      -2.960 -46.489   8.641  1.00  0.00     0.016 C 
ATOM     15  C16 UNK     1      -2.271 -46.795  12.227  1.00  0.00    -0.023 C 
ATOM     16  C17 UNK     1      -4.964 -46.141  10.151  1.00  0.00     0.020 C 
ATOM     17  C18 UNK     1      -3.027 -48.595  10.709  1.00  0.00     0.066 C 
ATOM     18  C20 UNK     1      -3.186 -47.957   8.280  1.00  0.00     0.033 C 
ATOM     19  C21 UNK     1      -2.528 -48.883   9.296  1.00  0.00     0.122 C 
ENDROOT
BRANCH   5  20
ATOM     20  C12 UNK     1      -3.150 -39.259  11.712  1.00  0.00    -0.014 C 
ATOM     21  C22 UNK     1      -2.605 -38.635  10.423  1.00  0.00     0.010 C 
BRANCH  20  22
ATOM     22  C19 UNK     1      -2.965 -38.330  12.930  1.00  0.00     0.005 C 
BRANCH  22  23
ATOM     23  C23 UNK     1      -2.175 -37.033  12.681  1.00  0.00     0.005 C 
BRANCH  23  24
ATOM     24  C24 UNK     1      -2.543 -35.823  13.580  1.00  0.00    -0.012 C 
BRANCH  24  25
ATOM     25  C25 UNK     1      -4.084 -35.689  13.795  1.00  0.00    -0.019 C 
ATOM     26  C27 UNK     1      -4.719 -34.674  12.835  1.00  0.00     0.010 C 
ATOM     27  C28 UNK     1      -4.483 -35.352  15.234  1.00  0.00     0.010 C 
ENDBRANCH  24  25
BRANCH  24  28
ATOM     28  C26 UNK     1      -1.889 -34.527  13.040  1.00  0.00     0.000 C 
ATOM     29  C29 UNK     1      -1.423 -33.559  14.120  1.00  0.00     0.005 C 
ENDBRANCH  24  28
ENDBRANCH  23  24
ENDBRANCH  22  23
ENDBRANCH  20  22
ENDBRANCH   5  20
BRANCH  19  30
ATOM     30  O1  UNK     1      -2.836 -50.228   8.945  1.00  0.00    -0.395 OA
ATOM     31  H38 UNK     1      -3.803 -50.298   8.873  1.00  0.00     0.210 HD
ENDBRANCH  19  30
TORSDOF 7
ENDMDL
MODEL 5
REMARK VINA RESULT:      -8.9      5.018      9.493
REMARK  7 active torsions:
REMARK  status: ('A' for Active; 'I' for Inactive)
REMARK    1  A    between atoms: O1_1  and  C21_22 
REMARK    2  A    between atoms: C5_6  and  C12_13 
REMARK    3  A    between atoms: C12_13  and  C19_20 
REMARK    4  A    between atoms: C19_20  and  C23_24 
REMARK    5  A    between atoms: C23_24  and  C24_25 
REMARK    6  A    between atoms: C24_25  and  C25_26 
REMARK    7  A    between atoms: C24_25  and  C26_27 
ROOT
ATOM      1  C1  UNK     1      -3.086 -36.171  13.715  1.00  0.00    -0.036 C 
ATOM      2  C2  UNK     1      -2.247 -35.018  14.301  1.00  0.00    -0.001 C 
ATOM      3  C3  UNK     1      -3.064 -34.056  15.169  1.00  0.00    -0.001 C 
ATOM      4  C4  UNK     1      -3.729 -34.845  16.335  1.00  0.00     0.003 C 
ATOM      5  C5  UNK     1      -1.989 -36.874  12.877  1.00  0.00    -0.002 C 
ATOM      6  C6  UNK     1      -3.624 -36.996  14.892  1.00  0.00     0.010 C 
ATOM      7  C7  UNK     1      -4.617 -33.900  17.240  1.00  0.00    -0.017 C 
ATOM      8  C8  UNK     1      -1.498 -34.462  13.093  1.00  0.00     0.006 C 
ATOM      9  C9  UNK     1      -4.458 -36.129  15.851  1.00  0.00     0.007 C 
ATOM     10  C10 UNK     1      -1.221 -35.702  12.222  1.00  0.00     0.006 C 
ATOM     11  C11 UNK     1      -2.172 -32.938  15.729  1.00  0.00     0.033 C 
ATOM     12  C13 UNK     1      -4.259 -35.704  12.818  1.00  0.00     0.016 C 
ATOM     13  C14 UNK     1      -3.885 -32.583  17.539  1.00  0.00    -0.072 C 
ATOM     14  C15 UNK     1      -4.903 -34.639  18.582  1.00  0.00     0.016 C 
ATOM     15  C16 UNK     1      -2.793 -32.186  16.863  1.00  0.00    -0.023 C 
ATOM     16  C17 UNK     1      -5.958 -33.556  16.549  1.00  0.00     0.020 C 
ATOM     17  C18 UNK     1      -4.438 -31.724  18.651  1.00  0.00     0.066 C 
ATOM     18  C20 UNK     1      -5.519 -33.756  19.668  1.00  0.00     0.033 C 
ATOM     19  C21 UNK     1      -4.661 -32.525  19.931  1.00  0.00     0.122 C 
ENDROOT
BRANCH   5  20
ATOM     20  C12 UNK     1      -2.463 -37.910  11.868  1.00  0.00    -0.014 C 
ATOM     21  C22 UNK     1      -3.471 -37.281  10.902  1.00  0.00     0.010 C 
BRANCH  20  22
ATOM     22  C19 UNK     1      -3.050 -39.133  12.604  1.00  0.00     0.005 C 
BRANCH  22  23
ATOM     23  C23 UNK     1      -2.430 -40.498  12.256  1.00  0.00     0.005 C 
BRANCH  23  24
ATOM     24  C24 UNK     1      -3.383 -41.541  11.615  1.00  0.00    -0.012 C 
BRANCH  24  25
ATOM     25  C25 UNK     1      -3.623 -42.775  12.542  1.00  0.00    -0.019 C 
ATOM     26  C27 UNK     1      -5.064 -42.841  13.063  1.00  0.00     0.010 C 
ATOM     27  C28 UNK     1      -2.648 -42.866  13.720  1.00  0.00     0.010 C 
ENDBRANCH  24  25
BRANCH  24  28
ATOM     28  C26 UNK     1      -2.890 -41.930  10.200  1.00  0.00     0.000 C 
ATOM     29  C29 UNK     1      -3.519 -43.200   9.641  1.00  0.00     0.005 C 
ENDBRANCH  24  28
ENDBRANCH  23  24
ENDBRANCH  22  23
ENDBRANCH  20  22
ENDBRANCH   5  20
BRANCH  19  30
ATOM     30  O1  UNK     1      -5.323 -31.712  20.894  1.00  0.00    -0.395 OA
ATOM     31  H38 UNK     1      -4.697 -31.024  21.178  1.00  0.00     0.210 HD
ENDBRANCH  19  30
TORSDOF 7
ENDMDL
MODEL 6
REMARK VINA RESULT:      -8.9      1.547      2.726
REMARK  7 active torsions:
REMARK  status: ('A' for Active; 'I' for Inactive)
REMARK    1  A    between atoms: O1_1  and  C21_22 
REMARK    2  A    between atoms: C5_6  and  C12_13 
REMARK    3  A    between atoms: C12_13  and  C19_20 
REMARK    4  A    between atoms: C19_20  and  C23_24 
REMARK    5  A    between atoms: C23_24  and  C24_25 
REMARK    6  A    between atoms: C24_25  and  C25_26 
REMARK    7  A    between atoms: C24_25  and  C26_27 
ROOT
ATOM      1  C1  UNK     1      -3.534 -34.613  22.747  1.00  0.00    -0.036 C 
ATOM      2  C2  UNK     1      -4.021 -35.658  21.723  1.00  0.00    -0.001 C 
ATOM      3  C3  UNK     1      -4.700 -35.035  20.499  1.00  0.00    -0.001 C 
ATOM      4  C4  UNK     1      -3.713 -34.056  19.798  1.00  0.00     0.003 C 
ATOM      5  C5  UNK     1      -2.981 -35.570  23.832  1.00  0.00    -0.002 C 
ATOM      6  C6  UNK     1      -2.475 -33.745  22.054  1.00  0.00     0.010 C 
ATOM      7  C7  UNK     1      -4.383 -33.356  18.548  1.00  0.00    -0.017 C 
ATOM      8  C8  UNK     1      -4.802 -36.659  22.568  1.00  0.00     0.006 C 
ATOM      9  C9  UNK     1      -3.039 -33.070  20.792  1.00  0.00     0.007 C 
ATOM     10  C10 UNK     1      -4.043 -36.692  23.907  1.00  0.00     0.006 C 
ATOM     11  C11 UNK     1      -5.152 -36.124  19.515  1.00  0.00     0.033 C 
ATOM     12  C13 UNK     1      -4.661 -33.716  23.316  1.00  0.00     0.016 C 
ATOM     13  C14 UNK     1      -5.165 -34.374  17.706  1.00  0.00    -0.072 C 
ATOM     14  C15 UNK     1      -3.252 -32.733  17.675  1.00  0.00     0.016 C 
ATOM     15  C16 UNK     1      -5.481 -35.602  18.153  1.00  0.00    -0.023 C 
ATOM     16  C17 UNK     1      -5.365 -32.242  18.985  1.00  0.00     0.020 C 
ATOM     17  C18 UNK     1      -5.574 -33.949  16.315  1.00  0.00     0.066 C 
ATOM     18  C20 UNK     1      -3.712 -32.257  16.297  1.00  0.00     0.033 C 
ATOM     19  C21 UNK     1      -4.399 -33.377  15.527  1.00  0.00     0.122 C 
ENDROOT
BRANCH   5  20
ATOM     20  C12 UNK     1      -2.673 -34.954  25.189  1.00  0.00    -0.014 C 
ATOM     21  C22 UNK     1      -1.209 -35.209  25.563  1.00  0.00     0.010 C 
BRANCH  20  22
ATOM     22  C19 UNK     1      -3.647 -35.504  26.252  1.00  0.00     0.005 C 
BRANCH  22  23
ATOM     23  C23 UNK     1      -3.035 -36.421  27.325  1.00  0.00     0.005 C 
BRANCH  23  24
ATOM     24  C24 UNK     1      -3.842 -37.698  27.677  1.00  0.00    -0.012 C 
BRANCH  24  25
ATOM     25  C25 UNK     1      -5.380 -37.501  27.488  1.00  0.00    -0.019 C 
ATOM     26  C27 UNK     1      -6.146 -37.599  28.814  1.00  0.00     0.010 C 
ATOM     27  C28 UNK     1      -6.006 -38.450  26.463  1.00  0.00     0.010 C 
ENDBRANCH  24  25
BRANCH  24  28
ATOM     28  C26 UNK     1      -3.463 -38.208  29.090  1.00  0.00     0.000 C 
ATOM     29  C29 UNK     1      -2.079 -37.784  29.563  1.00  0.00     0.005 C 
ENDBRANCH  24  28
ENDBRANCH  23  24
ENDBRANCH  22  23
ENDBRANCH  20  22
ENDBRANCH   5  20
BRANCH  19  30
ATOM     30  O1  UNK     1      -4.866 -32.852  14.288  1.00  0.00    -0.395 OA
ATOM     31  H38 UNK     1      -4.881 -33.582  13.646  1.00  0.00     0.210 HD
ENDBRANCH  19  30
TORSDOF 7
ENDMDL
