REMARK VINA RESULT:      -9.9      0.000      0.000
REMARK  2 active torsions:
REMARK  status: ('A' for Active; 'I' for Inactive)
REMARK       I    between atoms: N2_4  and  C17_21 
REMARK    1  A    between atoms: N2_4  and  C20_24 
REMARK    2  A    between atoms: C6_10  and  C17_21 
REMARK viewdock state: V
ATOM      1  O2  UNK     1      -4.945 -32.300  11.419  1.00  0.00    -0.269 OA
ATOM      2  N1  UNK     1      -5.017 -31.740  13.656  1.00  0.00    -0.352 N 
ATOM      3  C1  UNK     1      -5.399 -33.372  19.173  1.00  0.00    -0.001 C 
ATOM      4  C2  UNK     1      -4.634 -34.611  19.686  1.00  0.00    -0.028 C 
ATOM      5  C3  UNK     1      -4.840 -32.829  17.853  1.00  0.00    -0.004 C 
ATOM      6  C4  UNK     1      -4.950 -33.954  16.767  1.00  0.00     0.004 C 
ATOM      7  C5  UNK     1      -4.450 -33.451  15.366  1.00  0.00    -0.002 C 
ATOM      8  C6  UNK     1      -5.401 -34.849  21.005  1.00  0.00     0.086 C 
ATOM      9  C7  UNK     1      -4.786 -35.725  18.641  1.00  0.00     0.011 C 
ATOM     10  C8  UNK     1      -4.293 -35.275  17.253  1.00  0.00     0.007 C 
ATOM     11  C9  UNK     1      -5.450 -32.458  20.392  1.00  0.00     0.007 C 
ATOM     12  C10 UNK     1      -5.563 -31.544  17.421  1.00  0.00     0.007 C 
ATOM     13  C11 UNK     1      -5.633 -33.432  21.570  1.00  0.00     0.015 C 
ATOM     14  C12 UNK     1      -5.279 -32.183  15.016  1.00  0.00     0.097 C 
ATOM     15  C13 UNK     1      -5.121 -31.063  16.040  1.00  0.00     0.026 C 
ATOM     16  C14 UNK     1      -3.128 -34.353  19.959  1.00  0.00     0.016 C 
ATOM     17  C15 UNK     1      -2.927 -33.176  15.371  1.00  0.00     0.022 C 
ATOM     18  C16 UNK     1      -4.711 -34.445  14.242  1.00  0.00    -0.009 C 
ATOM     19  C18 UNK     1      -4.974 -34.069  12.981  1.00  0.00     0.071 C 
ATOM     20  C19 UNK     1      -4.979 -32.631  12.601  1.00  0.00     0.241 C 
ATOM     21  H25 UNK     1      -5.042 -30.747  13.446  1.00  0.00     0.163 HD
ATOM     22  C17 UNK     1      -4.698 -35.743  21.978  1.00  0.00     0.223 C 
ATOM     23  O1  UNK     1      -4.580 -36.949  21.782  1.00  0.00    -0.273 OA
ATOM     24  N2  UNK     1      -4.243 -35.054  23.090  1.00  0.00    -0.353 N 
ATOM     25  H27 UNK     1      -4.416 -34.053  23.151  1.00  0.00     0.163 HD
ATOM     26  C20 UNK     1      -3.552 -35.691  24.187  1.00  0.00     0.022 C 
ATOM     27  C21 UNK     1      -2.147 -36.102  23.731  1.00  0.00     0.037 C 
ATOM     28  C22 UNK     1      -3.451 -34.704  25.355  1.00  0.00     0.037 C 
ATOM     29  C23 UNK     1      -4.334 -36.934  24.625  1.00  0.00     0.037 C 
ENDMDL
REMARK VINA RESULT:      -9.9      2.491      8.107
REMARK  2 active torsions:
REMARK  status: ('A' for Active; 'I' for Inactive)
REMARK       I    between atoms: N2_4  and  C17_21 
REMARK    1  A    between atoms: N2_4  and  C20_24 
REMARK    2  A    between atoms: C6_10  and  C17_21 
REMARK viewdock state: V
ATOM      1  O2  UNK     1      -4.340 -34.269  23.687  1.00  0.00    -0.269 OA
ATOM      2  N1  UNK     1      -4.557 -33.239  21.634  1.00  0.00    -0.352 N 
ATOM      3  C1  UNK     1      -3.487 -33.184  15.968  1.00  0.00    -0.001 C 
ATOM      4  C2  UNK     1      -3.579 -34.480  15.133  1.00  0.00    -0.028 C 
ATOM      5  C3  UNK     1      -4.228 -33.283  17.307  1.00  0.00    -0.004 C 
ATOM      6  C4  UNK     1      -3.591 -34.447  18.142  1.00  0.00     0.004 C 
ATOM      7  C5  UNK     1      -4.259 -34.570  19.557  1.00  0.00    -0.002 C 
ATOM      8  C6  UNK     1      -2.800 -34.024  13.880  1.00  0.00     0.086 C 
ATOM      9  C7  UNK     1      -2.911 -35.605  15.935  1.00  0.00     0.011 C 
ATOM     10  C8  UNK     1      -3.549 -35.768  17.328  1.00  0.00     0.007 C 
ATOM     11  C9  UNK     1      -3.884 -32.096  14.977  1.00  0.00     0.007 C 
ATOM     12  C10 UNK     1      -4.194 -31.948  18.069  1.00  0.00     0.007 C 
ATOM     13  C11 UNK     1      -3.270 -32.573  13.648  1.00  0.00     0.015 C 
ATOM     14  C12 UNK     1      -4.126 -33.183  20.246  1.00  0.00     0.097 C 
ATOM     15  C13 UNK     1      -4.802 -32.059  19.466  1.00  0.00     0.026 C 
ATOM     16  C14 UNK     1      -5.030 -34.890  14.766  1.00  0.00     0.016 C 
ATOM     17  C15 UNK     1      -5.731 -35.036  19.452  1.00  0.00     0.022 C 
ATOM     18  C16 UNK     1      -3.552 -35.562  20.472  1.00  0.00    -0.009 C 
ATOM     19  C18 UNK     1      -3.489 -35.410  21.804  1.00  0.00     0.071 C 
ATOM     20  C19 UNK     1      -4.161 -34.263  22.472  1.00  0.00     0.241 C 
ATOM     21  H25 UNK     1      -5.002 -32.425  22.047  1.00  0.00     0.163 HD
ATOM     22  C17 UNK     1      -3.004 -34.889  12.676  1.00  0.00     0.223 C 
ATOM     23  O1  UNK     1      -3.594 -34.484  11.678  1.00  0.00    -0.273 OA
ATOM     24  N2  UNK     1      -2.478 -36.159  12.847  1.00  0.00    -0.353 N 
ATOM     25  H27 UNK     1      -2.023 -36.387  13.728  1.00  0.00     0.163 HD
ATOM     26  C20 UNK     1      -2.562 -37.192  11.840  1.00  0.00     0.022 C 
ATOM     27  C21 UNK     1      -1.442 -36.992  10.813  1.00  0.00     0.037 C 
ATOM     28  C22 UNK     1      -2.411 -38.560  12.514  1.00  0.00     0.037 C 
ATOM     29  C23 UNK     1      -3.922 -37.106  11.139  1.00  0.00     0.037 C 
ENDMDL
REMARK VINA RESULT:      -9.8      3.147      4.713
REMARK  2 active torsions:
REMARK  status: ('A' for Active; 'I' for Inactive)
REMARK       I    between atoms: N2_4  and  C17_21 
REMARK    1  A    between atoms: N2_4  and  C20_24 
REMARK    2  A    between atoms: C6_10  and  C17_21 
REMARK viewdock state: V
ATOM      1  O2  UNK     1      -2.168 -39.066  10.248  1.00  0.00    -0.269 OA
ATOM      2  N1  UNK     1      -2.886 -37.000  10.980  1.00  0.00    -0.352 N 
ATOM      3  C1  UNK     1      -4.896 -33.662  15.231  1.00  0.00    -0.001 C 
ATOM      4  C2  UNK     1      -4.332 -33.781  16.664  1.00  0.00    -0.028 C 
ATOM      5  C3  UNK     1      -3.966 -34.265  14.171  1.00  0.00    -0.004 C 
ATOM      6  C4  UNK     1      -3.767 -35.786  14.493  1.00  0.00     0.004 C 
ATOM      7  C5  UNK     1      -2.871 -36.488  13.412  1.00  0.00    -0.002 C 
ATOM      8  C6  UNK     1      -5.457 -33.055  17.434  1.00  0.00     0.086 C 
ATOM      9  C7  UNK     1      -4.185 -35.273  16.990  1.00  0.00     0.011 C 
ATOM     10  C8  UNK     1      -3.300 -35.997  15.959  1.00  0.00     0.007 C 
ATOM     11  C9  UNK     1      -5.291 -32.193  15.127  1.00  0.00     0.007 C 
ATOM     12  C10 UNK     1      -4.513 -34.046  12.752  1.00  0.00     0.007 C 
ATOM     13  C11 UNK     1      -5.826 -31.859  16.531  1.00  0.00     0.015 C 
ATOM     14  C12 UNK     1      -3.543 -36.240  12.032  1.00  0.00     0.097 C 
ATOM     15  C13 UNK     1      -3.678 -34.759  11.690  1.00  0.00     0.026 C 
ATOM     16  C14 UNK     1      -2.970 -33.065  16.865  1.00  0.00     0.016 C 
ATOM     17  C15 UNK     1      -1.413 -35.971  13.458  1.00  0.00     0.022 C 
ATOM     18  C16 UNK     1      -2.802 -38.001  13.578  1.00  0.00    -0.009 C 
ATOM     19  C18 UNK     1      -2.678 -38.844  12.542  1.00  0.00     0.071 C 
ATOM     20  C19 UNK     1      -2.552 -38.329  11.152  1.00  0.00     0.241 C 
ATOM     21  H25 UNK     1      -2.836 -36.608  10.045  1.00  0.00     0.163 HD
ATOM     22  C17 UNK     1      -5.083 -32.629  18.820  1.00  0.00     0.223 C 
ATOM     23  O1  UNK     1      -4.730 -31.481  19.073  1.00  0.00    -0.273 OA
ATOM     24  N2  UNK     1      -5.166 -33.671  19.729  1.00  0.00    -0.353 N 
ATOM     25  H27 UNK     1      -5.456 -34.588  19.399  1.00  0.00     0.163 HD
ATOM     26  C20 UNK     1      -4.836 -33.527  21.128  1.00  0.00     0.022 C 
ATOM     27  C21 UNK     1      -5.463 -32.236  21.667  1.00  0.00     0.037 C 
ATOM     28  C22 UNK     1      -5.387 -34.732  21.898  1.00  0.00     0.037 C 
ATOM     29  C23 UNK     1      -3.313 -33.462  21.286  1.00  0.00     0.037 C 
ENDMDL
REMARK VINA RESULT:      -9.6      1.484      2.625
REMARK  2 active torsions:
REMARK  status: ('A' for Active; 'I' for Inactive)
REMARK       I    between atoms: N2_4  and  C17_21 
REMARK    1  A    between atoms: N2_4  and  C20_24 
REMARK    2  A    between atoms: C6_10  and  C17_21 
REMARK viewdock state: V
ATOM      1  O2  UNK     1      -5.053 -31.102  12.535  1.00  0.00    -0.269 OA
ATOM      2  N1  UNK     1      -5.384 -32.840  14.015  1.00  0.00    -0.352 N 
ATOM      3  C1  UNK     1      -4.215 -35.343  19.077  1.00  0.00    -0.001 C 
ATOM      4  C2  UNK     1      -4.087 -34.500  20.365  1.00  0.00    -0.028 C 
ATOM      5  C3  UNK     1      -4.960 -34.609  17.955  1.00  0.00    -0.004 C 
ATOM      6  C4  UNK     1      -4.168 -33.302  17.606  1.00  0.00     0.004 C 
ATOM      7  C5  UNK     1      -4.839 -32.524  16.418  1.00  0.00    -0.002 C 
ATOM      8  C6  UNK     1      -3.362 -35.527  21.262  1.00  0.00     0.086 C 
ATOM      9  C7  UNK     1      -3.270 -33.246  20.028  1.00  0.00     0.011 C 
ATOM     10  C8  UNK     1      -3.904 -32.446  18.874  1.00  0.00     0.007 C 
ATOM     11  C9  UNK     1      -4.755 -36.677  19.579  1.00  0.00     0.007 C 
ATOM     12  C10 UNK     1      -5.151 -35.509  16.723  1.00  0.00     0.007 C 
ATOM     13  C11 UNK     1      -4.046 -36.870  20.932  1.00  0.00     0.015 C 
ATOM     14  C12 UNK     1      -4.938 -33.514  15.224  1.00  0.00     0.097 C 
ATOM     15  C13 UNK     1      -5.763 -34.757  15.543  1.00  0.00     0.026 C 
ATOM     16  C14 UNK     1      -5.449 -34.086  20.984  1.00  0.00     0.016 C 
ATOM     17  C15 UNK     1      -6.219 -31.950  16.822  1.00  0.00     0.022 C 
ATOM     18  C16 UNK     1      -4.006 -31.350  15.921  1.00  0.00    -0.009 C 
ATOM     19  C18 UNK     1      -3.996 -30.952  14.640  1.00  0.00     0.071 C 
ATOM     20  C19 UNK     1      -4.852 -31.626  13.627  1.00  0.00     0.241 C 
ATOM     21  H25 UNK     1      -5.959 -33.348  13.350  1.00  0.00     0.163 HD
ATOM     22  C17 UNK     1      -3.403 -35.209  22.724  1.00  0.00     0.223 C 
ATOM     23  O1  UNK     1      -3.882 -34.161  23.147  1.00  0.00    -0.273 OA
ATOM     24  N2  UNK     1      -2.830 -36.208  23.494  1.00  0.00    -0.353 N 
ATOM     25  H27 UNK     1      -2.449 -37.028  23.029  1.00  0.00     0.163 HD
ATOM     26  C20 UNK     1      -2.724 -36.134  24.933  1.00  0.00     0.022 C 
ATOM     27  C21 UNK     1      -2.173 -37.461  25.469  1.00  0.00     0.037 C 
ATOM     28  C22 UNK     1      -1.776 -34.990  25.306  1.00  0.00     0.037 C 
ATOM     29  C23 UNK     1      -4.111 -35.876  25.531  1.00  0.00     0.037 C 
ENDMDL
REMARK VINA RESULT:      -8.9      3.346      8.401
REMARK  2 active torsions:
REMARK  status: ('A' for Active; 'I' for Inactive)
REMARK       I    between atoms: N2_4  and  C17_21 
REMARK    1  A    between atoms: N2_4  and  C20_24 
REMARK    2  A    between atoms: C6_10  and  C17_21 
REMARK viewdock state: V
ATOM      1  O2  UNK     1      -6.056 -33.599  21.798  1.00  0.00    -0.269 OA
ATOM      2  N1  UNK     1      -4.929 -32.966  19.887  1.00  0.00    -0.352 N 
ATOM      3  C1  UNK     1      -2.376 -34.405  14.921  1.00  0.00    -0.001 C 
ATOM      4  C2  UNK     1      -2.997 -35.470  13.992  1.00  0.00    -0.028 C 
ATOM      5  C3  UNK     1      -3.381 -33.830  15.926  1.00  0.00    -0.004 C 
ATOM      6  C4  UNK     1      -3.917 -35.002  16.818  1.00  0.00     0.004 C 
ATOM      7  C5  UNK     1      -4.909 -34.480  17.917  1.00  0.00    -0.002 C 
ATOM      8  C6  UNK     1      -1.767 -35.781  13.112  1.00  0.00     0.086 C 
ATOM      9  C7  UNK     1      -3.476 -36.636  14.867  1.00  0.00     0.011 C 
ATOM     10  C8  UNK     1      -4.465 -36.167  15.951  1.00  0.00     0.007 C 
ATOM     11  C9  UNK     1      -1.668 -33.463  13.954  1.00  0.00     0.007 C 
ATOM     12  C10 UNK     1      -2.754 -32.708  16.770  1.00  0.00     0.007 C 
ATOM     13  C11 UNK     1      -1.118 -34.403  12.866  1.00  0.00     0.015 C 
ATOM     14  C12 UNK     1      -4.156 -33.390  18.730  1.00  0.00     0.097 C 
ATOM     15  C13 UNK     1      -3.691 -32.217  17.872  1.00  0.00     0.026 C 
ATOM     16  C14 UNK     1      -4.177 -34.944  13.131  1.00  0.00     0.016 C 
ATOM     17  C15 UNK     1      -6.220 -33.945  17.291  1.00  0.00     0.022 C 
ATOM     18  C16 UNK     1      -5.311 -35.551  18.923  1.00  0.00    -0.009 C 
ATOM     19  C18 UNK     1      -5.583 -35.279  20.208  1.00  0.00     0.071 C 
ATOM     20  C19 UNK     1      -5.549 -33.881  20.715  1.00  0.00     0.241 C 
ATOM     21  H25 UNK     1      -4.863 -32.002  20.199  1.00  0.00     0.163 HD
ATOM     22  C17 UNK     1      -2.083 -36.498  11.836  1.00  0.00     0.223 C 
ATOM     23  O1  UNK     1      -1.931 -35.969  10.739  1.00  0.00    -0.273 OA
ATOM     24  N2  UNK     1      -2.571 -37.775  12.059  1.00  0.00    -0.353 N 
ATOM     25  H27 UNK     1      -2.670 -38.102  13.017  1.00  0.00     0.163 HD
ATOM     26  C20 UNK     1      -2.971 -38.666  10.995  1.00  0.00     0.022 C 
ATOM     27  C21 UNK     1      -3.383 -40.016  11.592  1.00  0.00     0.037 C 
ATOM     28  C22 UNK     1      -4.156 -38.047  10.244  1.00  0.00     0.037 C 
ATOM     29  C23 UNK     1      -1.796 -38.867  10.033  1.00  0.00     0.037 C 
ENDMDL
REMARK VINA RESULT:      -8.8      2.807      5.243
REMARK  2 active torsions:
REMARK  status: ('A' for Active; 'I' for Inactive)
REMARK       I    between atoms: N2_4  and  C17_21 
REMARK    1  A    between atoms: N2_4  and  C20_24 
REMARK    2  A    between atoms: C6_10  and  C17_21 
REMARK viewdock state: V
ATOM      1  O2  UNK     1      -5.206 -32.801  16.134  1.00  0.00    -0.269 OA
ATOM      2  N1  UNK     1      -5.459 -34.141  17.996  1.00  0.00    -0.352 N 
ATOM      3  C1  UNK     1      -3.441 -36.053  23.048  1.00  0.00    -0.001 C 
ATOM      4  C2  UNK     1      -2.771 -35.087  24.049  1.00  0.00    -0.028 C 
ATOM      5  C3  UNK     1      -4.304 -35.330  22.006  1.00  0.00    -0.004 C 
ATOM      6  C4  UNK     1      -3.387 -34.349  21.197  1.00  0.00     0.004 C 
ATOM      7  C5  UNK     1      -4.190 -33.614  20.066  1.00  0.00    -0.002 C 
ATOM      8  C6  UNK     1      -2.054 -36.118  24.947  1.00  0.00     0.086 C 
ATOM      9  C7  UNK     1      -1.839 -34.161  23.257  1.00  0.00     0.011 C 
ATOM     10  C8  UNK     1      -2.592 -33.409  22.144  1.00  0.00     0.007 C 
ATOM     11  C9  UNK     1      -4.084 -37.104  23.947  1.00  0.00     0.007 C 
ATOM     12  C10 UNK     1      -5.028 -36.326  21.086  1.00  0.00     0.007 C 
ATOM     13  C11 UNK     1      -3.074 -37.267  25.097  1.00  0.00     0.015 C 
ATOM     14  C12 UNK     1      -4.837 -34.714  19.178  1.00  0.00     0.097 C 
ATOM     15  C13 UNK     1      -5.780 -35.631  19.953  1.00  0.00     0.026 C 
ATOM     16  C14 UNK     1      -3.776 -34.237  24.872  1.00  0.00     0.016 C 
ATOM     17  C15 UNK     1      -5.239 -32.641  20.655  1.00  0.00     0.022 C 
ATOM     18  C16 UNK     1      -3.305 -32.793  19.137  1.00  0.00    -0.009 C 
ATOM     19  C18 UNK     1      -3.580 -32.615  17.836  1.00  0.00     0.071 C 
ATOM     20  C19 UNK     1      -4.815 -33.185  17.234  1.00  0.00     0.241 C 
ATOM     21  H25 UNK     1      -6.295 -34.574  17.617  1.00  0.00     0.163 HD
ATOM     22  C17 UNK     1      -1.603 -35.580  26.270  1.00  0.00     0.223 C 
ATOM     23  O1  UNK     1      -0.551 -34.959  26.393  1.00  0.00    -0.273 OA
ATOM     24  N2  UNK     1      -2.488 -35.887  27.290  1.00  0.00    -0.353 N 
ATOM     25  H27 UNK     1      -3.323 -36.424  27.070  1.00  0.00     0.163 HD
ATOM     26  C20 UNK     1      -2.272 -35.502  28.666  1.00  0.00     0.022 C 
ATOM     27  C21 UNK     1      -1.118 -36.327  29.248  1.00  0.00     0.037 C 
ATOM     28  C22 UNK     1      -1.923 -34.011  28.720  1.00  0.00     0.037 C 
ATOM     29  C23 UNK     1      -3.548 -35.766  29.472  1.00  0.00     0.037 C 
ENDMDL
