REMARK  2 active torsions:
REMARK  status: ('A' for Active; 'I' for Inactive)
REMARK       I    between atoms: N2_4  and  C17_21 
REMARK    1  A    between atoms: N2_4  and  C20_24 
REMARK    2  A    between atoms: C6_10  and  C17_21 
ROOT
ATOM      1  O2  UNK     1      30.812 -41.766   4.461  1.00  0.00    -0.269 OA
ATOM      2  N1  UNK     1      32.625 -40.576   5.249  1.00  0.00    -0.352 N 
ATOM      3  C1  UNK     1      35.037 -35.514   6.593  1.00  0.00    -0.001 C 
ATOM      4  C2  UNK     1      34.224 -34.417   7.314  1.00  0.00    -0.028 C 
ATOM      5  C3  UNK     1      34.410 -36.907   6.726  1.00  0.00    -0.004 C 
ATOM      6  C4  UNK     1      32.976 -36.868   6.094  1.00  0.00     0.004 C 
ATOM      7  C5  UNK     1      32.291 -38.280   6.138  1.00  0.00    -0.002 C 
ATOM      8  C6  UNK     1      35.136 -33.204   7.029  1.00  0.00     0.086 C 
ATOM      9  C7  UNK     1      32.838 -34.351   6.659  1.00  0.00     0.011 C 
ATOM     10  C8  UNK     1      32.125 -35.716   6.694  1.00  0.00     0.007 C 
ATOM     11  C9  UNK     1      36.459 -35.287   7.094  1.00  0.00     0.007 C 
ATOM     12  C10 UNK     1      35.292 -37.986   6.078  1.00  0.00     0.007 C 
ATOM     13  C11 UNK     1      36.567 -33.755   7.202  1.00  0.00     0.015 C 
ATOM     14  C12 UNK     1      33.247 -39.273   5.419  1.00  0.00     0.097 C 
ATOM     15  C13 UNK     1      34.623 -39.359   6.073  1.00  0.00     0.026 C 
ATOM     16  C14 UNK     1      34.070 -34.649   8.841  1.00  0.00     0.016 C 
ATOM     17  C15 UNK     1      31.976 -38.714   7.590  1.00  0.00     0.022 C 
ATOM     18  C16 UNK     1      30.976 -38.335   5.371  1.00  0.00    -0.009 C 
ATOM     19  C18 UNK     1      30.545 -39.437   4.739  1.00  0.00     0.071 C 
ATOM     20  C19 UNK     1      31.326 -40.702   4.796  1.00  0.00     0.241 C 
ATOM     21  H25 UNK     1      33.204 -41.409   5.286  1.00  0.00     0.163 HD
ENDROOT
BRANCH   8  22
ATOM     22  C17 UNK     1      34.874 -32.014   7.899  1.00  0.00     0.223 C 
ATOM     23  O1  UNK     1      35.425 -31.872   8.987  1.00  0.00    -0.273 OA
ATOM     24  N2  UNK     1      33.948 -31.149   7.340  1.00  0.00    -0.353 N 
ATOM     25  H27 UNK     1      33.544 -31.381   6.436  1.00  0.00     0.163 HD
BRANCH  24  26
ATOM     26  C20 UNK     1      33.505 -29.937   7.990  1.00  0.00     0.022 C 
ATOM     27  C21 UNK     1      32.484 -29.226   7.094  1.00  0.00     0.037 C 
ATOM     28  C22 UNK     1      32.857 -30.297   9.331  1.00  0.00     0.037 C 
ATOM     29  C23 UNK     1      34.709 -29.019   8.225  1.00  0.00     0.037 C 
ENDBRANCH  24  26
ENDBRANCH   8  22
TORSDOF 2
