MODEL 1
REMARK VINA RESULT:     -10.8      0.000      0.000
REMARK  1 active torsions:
REMARK  status: ('A' for Active; 'I' for Inactive)
REMARK    1  A    between atoms: O1_1  and  C18_19 
ROOT
ATOM      1  C1  UNK     1      -3.553 -34.856  14.200  1.00  0.00    -0.028 C 
ATOM      2  C2  UNK     1      -2.987 -36.311  14.400  1.00  0.00     0.007 C 
ATOM      3  C3  UNK     1      -2.406 -37.050  13.112  1.00  0.00    -0.035 C 
ATOM      4  C4  UNK     1      -4.400 -34.454  15.542  1.00  0.00    -0.013 C 
ATOM      5  C5  UNK     1      -3.507 -36.959  11.991  1.00  0.00     0.004 C 
ATOM      6  C6  UNK     1      -4.445 -34.799  12.928  1.00  0.00     0.011 C 
ATOM      7  C7  UNK     1      -3.510 -34.631  16.790  1.00  0.00    -0.070 C 
ATOM      8  C8  UNK     1      -3.856 -35.486  11.692  1.00  0.00     0.007 C 
ATOM      9  C9  UNK     1      -3.783 -33.825  18.065  1.00  0.00     0.024 C 
ATOM     10  C10 UNK     1      -3.283 -37.863  10.720  1.00  0.00    -0.017 C 
ATOM     11  C11 UNK     1      -4.219 -32.362  17.784  1.00  0.00    -0.036 C 
ATOM     12  C12 UNK     1      -4.973 -33.008  15.423  1.00  0.00     0.015 C 
ATOM     13  C13 UNK     1      -2.076 -36.388  15.649  1.00  0.00     0.033 C 
ATOM     14  C14 UNK     1      -2.197 -38.554  13.464  1.00  0.00     0.012 C 
ATOM     15  C15 UNK     1      -5.369 -32.356  16.751  1.00  0.00     0.011 C 
ATOM     16  C16 UNK     1      -2.389 -33.840  13.977  1.00  0.00     0.016 C 
ATOM     17  C17 UNK     1      -2.490 -35.512  16.795  1.00  0.00    -0.022 C 
ATOM     18  C18 UNK     1      -3.026 -39.326  11.194  1.00  0.00     0.126 C 
ATOM     19  C19 UNK     1      -1.036 -36.481  12.663  1.00  0.00     0.016 C 
ATOM     20  C20 UNK     1      -5.627 -35.397  15.752  1.00  0.00     0.021 C 
ATOM     21  C21 UNK     1      -1.939 -39.448  12.255  1.00  0.00     0.033 C 
ATOM     22  C22 UNK     1      -4.754 -34.594  18.992  1.00  0.00     0.018 C 
ATOM     23  C23 UNK     1      -4.671 -31.646  19.084  1.00  0.00     0.010 C 
ATOM     24  C24 UNK     1      -5.118 -33.852  20.295  1.00  0.00    -0.047 C 
ATOM     25  C25 UNK     1      -5.642 -32.447  19.947  1.00  0.00     0.009 C 
ATOM     26  C26 UNK     1      -2.158 -37.367   9.790  1.00  0.00     0.018 C 
ATOM     27  C27 UNK     1      -4.577 -37.872   9.858  1.00  0.00     0.018 C 
ATOM     28  C28 UNK     1      -3.018 -31.548  17.237  1.00  0.00     0.016 C 
ATOM     29  C29 UNK     1      -6.232 -34.632  21.021  1.00  0.00     0.015 C 
ATOM     30  C30 UNK     1      -3.905 -33.776  21.241  1.00  0.00     0.015 C 
ENDROOT
BRANCH  18  31
ATOM     31  O1  UNK     1      -2.651 -40.176  10.110  1.00  0.00    -0.395 OA
ATOM     32  H50 UNK     1      -3.455 -40.558   9.723  1.00  0.00     0.210 HD
ENDBRANCH  18  31
TORSDOF 1
ENDMDL
MODEL 2
REMARK VINA RESULT:     -10.2      5.217     10.159
REMARK  1 active torsions:
REMARK  status: ('A' for Active; 'I' for Inactive)
REMARK    1  A    between atoms: O1_1  and  C18_19 
ROOT
ATOM      1  C1  UNK     1      -3.936 -36.003  22.214  1.00  0.00    -0.028 C 
ATOM      2  C2  UNK     1      -3.558 -34.879  23.251  1.00  0.00     0.007 C 
ATOM      3  C3  UNK     1      -3.091 -35.353  24.699  1.00  0.00    -0.035 C 
ATOM      4  C4  UNK     1      -4.709 -35.291  20.958  1.00  0.00    -0.013 C 
ATOM      5  C5  UNK     1      -4.184 -36.353  25.234  1.00  0.00     0.004 C 
ATOM      6  C6  UNK     1      -4.828 -37.080  22.893  1.00  0.00     0.011 C 
ATOM      7  C7  UNK     1      -3.835 -34.156  20.386  1.00  0.00    -0.070 C 
ATOM      8  C8  UNK     1      -4.345 -37.547  24.269  1.00  0.00     0.007 C 
ATOM      9  C9  UNK     1      -3.989 -33.712  18.926  1.00  0.00     0.024 C 
ATOM     10  C10 UNK     1      -4.092 -36.734  26.759  1.00  0.00    -0.017 C 
ATOM     11  C11 UNK     1      -4.237 -34.893  17.949  1.00  0.00    -0.036 C 
ATOM     12  C12 UNK     1      -5.094 -36.347  19.876  1.00  0.00     0.015 C 
ATOM     13  C13 UNK     1      -2.650 -33.805  22.603  1.00  0.00     0.033 C 
ATOM     14  C14 UNK     1      -3.072 -34.110  25.638  1.00  0.00     0.012 C 
ATOM     15  C15 UNK     1      -5.389 -35.773  18.487  1.00  0.00     0.011 C 
ATOM     16  C16 UNK     1      -2.654 -36.735  21.707  1.00  0.00     0.016 C 
ATOM     17  C17 UNK     1      -2.936 -33.515  21.159  1.00  0.00    -0.022 C 
ATOM     18  C18 UNK     1      -4.019 -35.420  27.594  1.00  0.00     0.126 C 
ATOM     19  C19 UNK     1      -1.665 -35.960  24.699  1.00  0.00     0.016 C 
ATOM     20  C20 UNK     1      -6.045 -34.619  21.410  1.00  0.00     0.021 C 
ATOM     21  C21 UNK     1      -2.944 -34.448  27.120  1.00  0.00     0.033 C 
ATOM     22  C22 UNK     1      -5.040 -32.582  18.814  1.00  0.00     0.018 C 
ATOM     23  C23 UNK     1      -4.580 -34.385  16.523  1.00  0.00     0.010 C 
ATOM     24  C24 UNK     1      -5.291 -32.082  17.376  1.00  0.00    -0.047 C 
ATOM     25  C25 UNK     1      -5.635 -33.283  16.477  1.00  0.00     0.009 C 
ATOM     26  C26 UNK     1      -2.923 -37.682  27.098  1.00  0.00     0.018 C 
ATOM     27  C27 UNK     1      -5.386 -37.485  27.183  1.00  0.00     0.018 C 
ATOM     28  C28 UNK     1      -2.948 -35.743  17.808  1.00  0.00     0.016 C 
ATOM     29  C29 UNK     1      -6.487 -31.110  17.385  1.00  0.00     0.015 C 
ATOM     30  C30 UNK     1      -4.068 -31.316  16.838  1.00  0.00     0.015 C 
ENDROOT
BRANCH  18  31
ATOM     31  O1  UNK     1      -3.767 -35.682  28.975  1.00  0.00    -0.395 OA
ATOM     32  H50 UNK     1      -3.933 -34.868  29.479  1.00  0.00     0.210 HD
ENDBRANCH  18  31
TORSDOF 1
ENDMDL
MODEL 3
REMARK VINA RESULT:      -9.9      2.994      8.202
REMARK  1 active torsions:
REMARK  status: ('A' for Active; 'I' for Inactive)
REMARK    1  A    between atoms: O1_1  and  C18_19 
ROOT
ATOM      1  C1  UNK     1      -3.968 -34.382  17.393  1.00  0.00    -0.028 C 
ATOM      2  C2  UNK     1      -4.257 -35.640  18.295  1.00  0.00     0.007 C 
ATOM      3  C3  UNK     1      -4.666 -35.370  19.811  1.00  0.00    -0.035 C 
ATOM      4  C4  UNK     1      -3.235 -34.900  16.023  1.00  0.00    -0.013 C 
ATOM      5  C5  UNK     1      -3.580 -34.405  20.418  1.00  0.00     0.004 C 
ATOM      6  C6  UNK     1      -3.078 -33.366  18.162  1.00  0.00     0.011 C 
ATOM      7  C7  UNK     1      -4.100 -35.987  15.351  1.00  0.00    -0.070 C 
ATOM      8  C8  UNK     1      -3.505 -33.094  19.608  1.00  0.00     0.007 C 
ATOM      9  C9  UNK     1      -4.006 -36.238  13.841  1.00  0.00     0.024 C 
ATOM     10  C10 UNK     1      -3.608 -34.222  21.982  1.00  0.00    -0.017 C 
ATOM     11  C11 UNK     1      -3.844 -34.935  13.012  1.00  0.00    -0.036 C 
ATOM     12  C12 UNK     1      -2.939 -33.703  15.067  1.00  0.00     0.015 C 
ATOM     13  C13 UNK     1      -5.162 -36.658  17.558  1.00  0.00     0.033 C 
ATOM     14  C14 UNK     1      -4.599 -36.721  20.584  1.00  0.00     0.012 C 
ATOM     15  C15 UNK     1      -2.696 -34.087  13.605  1.00  0.00     0.011 C 
ATOM     16  C16 UNK     1      -5.296 -33.641  17.043  1.00  0.00     0.016 C 
ATOM     17  C17 UNK     1      -4.939 -36.753  16.077  1.00  0.00    -0.022 C 
ATOM     18  C18 UNK     1      -3.598 -35.633  22.646  1.00  0.00     0.126 C 
ATOM     19  C19 UNK     1      -6.109 -34.822  19.954  1.00  0.00     0.016 C 
ATOM     20  C20 UNK     1      -1.859 -35.573  16.325  1.00  0.00     0.021 C 
ATOM     21  C21 UNK     1      -4.664 -36.578  22.102  1.00  0.00     0.033 C 
ATOM     22  C22 UNK     1      -2.926 -37.304  13.538  1.00  0.00     0.018 C 
ATOM     23  C23 UNK     1      -3.557 -35.246  11.520  1.00  0.00     0.010 C 
ATOM     24  C24 UNK     1      -2.732 -37.609  12.039  1.00  0.00    -0.047 C 
ATOM     25  C25 UNK     1      -2.471 -36.293  11.285  1.00  0.00     0.009 C 
ATOM     26  C26 UNK     1      -4.788 -33.369  22.492  1.00  0.00     0.018 C 
ATOM     27  C27 UNK     1      -2.319 -33.482  22.439  1.00  0.00     0.018 C 
ATOM     28  C28 UNK     1      -5.165 -34.123  13.039  1.00  0.00     0.016 C 
ATOM     29  C29 UNK     1      -1.506 -38.529  11.870  1.00  0.00     0.015 C 
ATOM     30  C30 UNK     1      -3.955 -38.348  11.464  1.00  0.00     0.015 C 
ENDROOT
BRANCH  18  31
ATOM     31  O1  UNK     1      -3.789 -35.556  24.059  1.00  0.00    -0.395 OA
ATOM     32  H50 UNK     1      -3.926 -34.626  24.302  1.00  0.00     0.210 HD
ENDBRANCH  18  31
TORSDOF 1
ENDMDL
MODEL 4
REMARK VINA RESULT:      -9.4      4.575      8.828
REMARK  1 active torsions:
REMARK  status: ('A' for Active; 'I' for Inactive)
REMARK    1  A    between atoms: O1_1  and  C18_19 
ROOT
ATOM      1  C1  UNK     1      -3.704 -35.656  22.143  1.00  0.00    -0.028 C 
ATOM      2  C2  UNK     1      -4.049 -34.179  21.720  1.00  0.00     0.007 C 
ATOM      3  C3  UNK     1      -4.629 -33.959  20.251  1.00  0.00    -0.035 C 
ATOM      4  C4  UNK     1      -2.812 -35.593  23.514  1.00  0.00    -0.013 C 
ATOM      5  C5  UNK     1      -3.648 -34.680  19.253  1.00  0.00     0.004 C 
ATOM      6  C6  UNK     1      -2.937 -36.375  20.998  1.00  0.00     0.011 C 
ATOM      7  C7  UNK     1      -3.563 -34.776  24.586  1.00  0.00    -0.070 C 
ATOM      8  C8  UNK     1      -3.528 -36.179  19.599  1.00  0.00     0.007 C 
ATOM      9  C9  UNK     1      -3.296 -35.013  26.077  1.00  0.00     0.024 C 
ATOM     10  C10 UNK     1      -3.851 -34.361  17.724  1.00  0.00    -0.017 C 
ATOM     11  C11 UNK     1      -3.088 -36.510  26.432  1.00  0.00    -0.036 C 
ATOM     12  C12 UNK     1      -2.453 -37.029  24.006  1.00  0.00     0.015 C 
ATOM     13  C13 UNK     1      -4.835 -33.448  22.836  1.00  0.00     0.033 C 
ATOM     14  C14 UNK     1      -4.602 -32.433  19.938  1.00  0.00     0.012 C 
ATOM     15  C15 UNK     1      -2.039 -37.125  25.478  1.00  0.00     0.011 C 
ATOM     16  C16 UNK     1      -5.010 -36.474  22.391  1.00  0.00     0.016 C 
ATOM     17  C17 UNK     1      -4.450 -33.823  24.236  1.00  0.00    -0.022 C 
ATOM     18  C18 UNK     1      -3.867 -32.813  17.540  1.00  0.00     0.126 C 
ATOM     19  C19 UNK     1      -6.096 -34.439  20.109  1.00  0.00     0.016 C 
ATOM     20  C20 UNK     1      -1.455 -34.855  23.284  1.00  0.00     0.021 C 
ATOM     21  C21 UNK     1      -4.836 -32.092  18.469  1.00  0.00     0.033 C 
ATOM     22  C22 UNK     1      -2.156 -34.092  26.575  1.00  0.00     0.018 C 
ATOM     23  C23 UNK     1      -2.631 -36.684  27.905  1.00  0.00     0.010 C 
ATOM     24  C24 UNK     1      -1.790 -34.274  28.062  1.00  0.00    -0.047 C 
ATOM     25  C25 UNK     1      -1.493 -35.761  28.331  1.00  0.00     0.009 C 
ATOM     26  C26 UNK     1      -5.107 -35.014  17.111  1.00  0.00     0.018 C 
ATOM     27  C27 UNK     1      -2.644 -34.916  16.916  1.00  0.00     0.018 C 
ATOM     28  C28 UNK     1      -4.430 -37.276  26.303  1.00  0.00     0.016 C 
ATOM     29  C29 UNK     1      -0.525 -33.451  28.371  1.00  0.00     0.015 C 
ATOM     30  C30 UNK     1      -2.920 -33.759  28.974  1.00  0.00     0.015 C 
ENDROOT
BRANCH  18  31
ATOM     31  O1  UNK     1      -4.212 -32.442  16.205  1.00  0.00    -0.395 OA
ATOM     32  H50 UNK     1      -5.160 -32.229  16.179  1.00  0.00     0.210 HD
ENDBRANCH  18  31
TORSDOF 1
ENDMDL
MODEL 5
REMARK VINA RESULT:      -9.0      3.132      6.422
REMARK  1 active torsions:
REMARK  status: ('A' for Active; 'I' for Inactive)
REMARK    1  A    between atoms: O1_1  and  C18_19 
ROOT
ATOM      1  C1  UNK     1      -4.361 -35.405  19.341  1.00  0.00    -0.028 C 
ATOM      2  C2  UNK     1      -3.624 -34.075  18.934  1.00  0.00     0.007 C 
ATOM      3  C3  UNK     1      -3.842 -33.549  17.445  1.00  0.00    -0.035 C 
ATOM      4  C4  UNK     1      -3.717 -35.927  20.753  1.00  0.00    -0.013 C 
ATOM      5  C5  UNK     1      -3.534 -34.753  16.479  1.00  0.00     0.004 C 
ATOM      6  C6  UNK     1      -4.205 -36.469  18.219  1.00  0.00     0.011 C 
ATOM      7  C7  UNK     1      -3.793 -34.802  21.806  1.00  0.00    -0.070 C 
ATOM      8  C8  UNK     1      -4.450 -35.953  16.798  1.00  0.00     0.007 C 
ATOM      9  C9  UNK     1      -3.823 -35.133  23.303  1.00  0.00     0.024 C 
ATOM     10  C10 UNK     1      -3.402 -34.402  14.949  1.00  0.00    -0.017 C 
ATOM     11  C11 UNK     1      -4.672 -36.390  23.636  1.00  0.00    -0.036 C 
ATOM     12  C12 UNK     1      -4.420 -37.235  21.232  1.00  0.00     0.015 C 
ATOM     13  C13 UNK     1      -3.785 -32.991  20.027  1.00  0.00     0.033 C 
ATOM     14  C14 UNK     1      -2.800 -32.425  17.166  1.00  0.00     0.012 C 
ATOM     15  C15 UNK     1      -4.245 -37.558  22.718  1.00  0.00     0.011 C 
ATOM     16  C16 UNK     1      -5.892 -35.154  19.512  1.00  0.00     0.016 C 
ATOM     17  C17 UNK     1      -3.813 -33.506  21.436  1.00  0.00    -0.022 C 
ATOM     18  C18 UNK     1      -2.383 -33.232  14.796  1.00  0.00     0.126 C 
ATOM     19  C19 UNK     1      -5.252 -32.943  17.225  1.00  0.00     0.016 C 
ATOM     20  C20 UNK     1      -2.202 -36.272  20.602  1.00  0.00     0.021 C 
ATOM     21  C21 UNK     1      -2.679 -32.036  15.695  1.00  0.00     0.033 C 
ATOM     22  C22 UNK     1      -2.385 -35.187  23.872  1.00  0.00     0.018 C 
ATOM     23  C23 UNK     1      -4.516 -36.800  25.124  1.00  0.00     0.010 C 
ATOM     24  C24 UNK     1      -2.303 -35.544  25.371  1.00  0.00    -0.047 C 
ATOM     25  C25 UNK     1      -3.074 -36.852  25.622  1.00  0.00     0.009 C 
ATOM     26  C26 UNK     1      -4.744 -34.072  14.264  1.00  0.00     0.018 C 
ATOM     27  C27 UNK     1      -2.823 -35.627  14.186  1.00  0.00     0.018 C 
ATOM     28  C28 UNK     1      -6.177 -36.082  23.428  1.00  0.00     0.016 C 
ATOM     29  C29 UNK     1      -0.826 -35.756  25.755  1.00  0.00     0.015 C 
ATOM     30  C30 UNK     1      -2.854 -34.397  26.240  1.00  0.00     0.015 C 
ENDROOT
BRANCH  18  31
ATOM     31  O1  UNK     1      -2.331 -32.744  13.456  1.00  0.00    -0.395 OA
ATOM     32  H50 UNK     1      -2.471 -31.783  13.470  1.00  0.00     0.210 HD
ENDBRANCH  18  31
TORSDOF 1
ENDMDL
MODEL 6
REMARK VINA RESULT:      -8.7      3.372      8.405
REMARK  1 active torsions:
REMARK  status: ('A' for Active; 'I' for Inactive)
REMARK    1  A    between atoms: O1_1  and  C18_19 
ROOT
ATOM      1  C1  UNK     1      -4.181 -33.542  19.310  1.00  0.00    -0.028 C 
ATOM      2  C2  UNK     1      -4.527 -35.012  19.760  1.00  0.00     0.007 C 
ATOM      3  C3  UNK     1      -4.644 -35.285  21.326  1.00  0.00    -0.035 C 
ATOM      4  C4  UNK     1      -3.766 -33.583  17.727  1.00  0.00    -0.013 C 
ATOM      5  C5  UNK     1      -3.335 -34.722  21.993  1.00  0.00     0.004 C 
ATOM      6  C6  UNK     1      -3.028 -32.973  20.185  1.00  0.00     0.011 C 
ATOM      7  C7  UNK     1      -4.890 -34.256  16.912  1.00  0.00    -0.070 C 
ATOM      8  C8  UNK     1      -3.175 -33.217  21.690  1.00  0.00     0.007 C 
ATOM      9  C9  UNK     1      -5.074 -33.937  15.424  1.00  0.00     0.024 C 
ATOM     10  C10 UNK     1      -3.088 -35.130  23.494  1.00  0.00    -0.017 C 
ATOM     11  C11 UNK     1      -4.834 -32.442  15.083  1.00  0.00    -0.036 C 
ATOM     12  C12 UNK     1      -3.431 -32.151  17.206  1.00  0.00     0.015 C 
ATOM     13  C13 UNK     1      -5.689 -35.593  18.917  1.00  0.00     0.033 C 
ATOM     14  C14 UNK     1      -4.678 -36.827  21.551  1.00  0.00     0.012 C 
ATOM     15  C15 UNK     1      -3.485 -31.986  15.684  1.00  0.00     0.011 C 
ATOM     16  C16 UNK     1      -5.408 -32.602  19.518  1.00  0.00     0.016 C 
ATOM     17  C17 UNK     1      -5.719 -35.153  17.483  1.00  0.00    -0.022 C 
ATOM     18  C18 UNK     1      -3.204 -36.680  23.611  1.00  0.00     0.126 C 
ATOM     19  C19 UNK     1      -5.939 -34.695  21.940  1.00  0.00     0.016 C 
ATOM     20  C20 UNK     1      -2.487 -34.447  17.489  1.00  0.00     0.021 C 
ATOM     21  C21 UNK     1      -4.481 -37.250  23.004  1.00  0.00     0.033 C 
ATOM     22  C22 UNK     1      -4.244 -34.913  14.557  1.00  0.00     0.018 C 
ATOM     23  C23 UNK     1      -4.839 -32.203  13.550  1.00  0.00     0.010 C 
ATOM     24  C24 UNK     1      -4.338 -34.657  13.038  1.00  0.00    -0.047 C 
ATOM     25  C25 UNK     1      -3.988 -33.186  12.751  1.00  0.00     0.009 C 
ATOM     26  C26 UNK     1      -4.019 -34.419  24.498  1.00  0.00     0.018 C 
ATOM     27  C27 UNK     1      -1.641 -34.738  23.905  1.00  0.00     0.018 C 
ATOM     28  C28 UNK     1      -5.985 -31.576  15.659  1.00  0.00     0.016 C 
ATOM     29  C29 UNK     1      -3.320 -35.561  12.314  1.00  0.00     0.015 C 
ATOM     30  C30 UNK     1      -5.740 -35.010  12.507  1.00  0.00     0.015 C 
ENDROOT
BRANCH  18  31
ATOM     31  O1  UNK     1      -3.157 -37.115  24.970  1.00  0.00    -0.395 OA
ATOM     32  H50 UNK     1      -4.059 -37.330  25.257  1.00  0.00     0.210 HD
ENDBRANCH  18  31
TORSDOF 1
ENDMDL
