REMARK  1 active torsions:
REMARK  status: ('A' for Active; 'I' for Inactive)
REMARK    1  A    between atoms: O1_1  and  C18_19 
ROOT
ATOM      1  C1  UNK     1      11.098 -69.299  31.578  1.00  0.00    -0.028 C 
ATOM      2  C2  UNK     1      11.171 -67.962  30.749  1.00  0.00     0.007 C 
ATOM      3  C3  UNK     1      10.949 -68.069  29.174  1.00  0.00    -0.035 C 
ATOM      4  C4  UNK     1      11.700 -69.001  33.071  1.00  0.00    -0.013 C 
ATOM      5  C5  UNK     1      11.925 -69.185  28.644  1.00  0.00     0.004 C 
ATOM      6  C6  UNK     1      11.898 -70.420  30.857  1.00  0.00     0.011 C 
ATOM      7  C7  UNK     1      10.951 -67.810  33.705  1.00  0.00    -0.070 C 
ATOM      8  C8  UNK     1      11.647 -70.529  29.350  1.00  0.00     0.007 C 
ATOM      9  C9  UNK     1      10.865 -67.663  35.229  1.00  0.00     0.024 C 
ATOM     10  C10 UNK     1      12.096 -69.275  27.081  1.00  0.00    -0.017 C 
ATOM     11  C11 UNK     1      10.670 -69.016  35.965  1.00  0.00    -0.036 C 
ATOM     12  C12 UNK     1      11.636 -70.282  33.959  1.00  0.00     0.015 C 
ATOM     13  C13 UNK     1      10.362 -66.835  31.436  1.00  0.00     0.033 C 
ATOM     14  C14 UNK     1      11.367 -66.714  28.528  1.00  0.00     0.012 C 
ATOM     15  C15 UNK     1      11.725 -70.030  35.467  1.00  0.00     0.011 C 
ATOM     16  C16 UNK     1       9.623 -69.798  31.685  1.00  0.00     0.016 C 
ATOM     17  C17 UNK     1      10.377 -66.863  32.936  1.00  0.00    -0.022 C 
ATOM     18  C18 UNK     1      12.453 -67.857  26.540  1.00  0.00     0.126 C 
ATOM     19  C19 UNK     1       9.469 -68.330  28.795  1.00  0.00     0.016 C 
ATOM     20  C20 UNK     1      13.203 -68.581  33.013  1.00  0.00     0.021 C 
ATOM     21  C21 UNK     1      11.502 -66.761  27.009  1.00  0.00     0.033 C 
ATOM     22  C22 UNK     1      12.059 -66.834  35.759  1.00  0.00     0.018 C 
ATOM     23  C23 UNK     1      10.784 -68.845  37.503  1.00  0.00     0.010 C 
ATOM     24  C24 UNK     1      12.081 -66.652  37.291  1.00  0.00    -0.047 C 
ATOM     25  C25 UNK     1      11.991 -68.033  37.965  1.00  0.00     0.009 C 
ATOM     26  C26 UNK     1      10.872 -69.864  26.350  1.00  0.00     0.018 C 
ATOM     27  C27 UNK     1      13.287 -70.216  26.745  1.00  0.00     0.018 C 
ATOM     28  C28 UNK     1       9.245 -69.565  35.695  1.00  0.00     0.016 C 
ATOM     29  C29 UNK     1      13.411 -65.987  37.697  1.00  0.00     0.015 C 
ATOM     30  C30 UNK     1      10.936 -65.731  37.752  1.00  0.00     0.015 C 
ENDROOT
BRANCH  18  31
ATOM     31  O1  UNK     1      12.462 -67.820  25.113  1.00  0.00    -0.395 OA
ATOM     32  H50 UNK     1      11.547 -67.893  24.796  1.00  0.00     0.210 HD
ENDBRANCH  18  31
TORSDOF 1
